#\#CIF1.1
##########################################################################
#               Crystallographic Information Format file 
#               Produced by PyCifRW module
# 
#  This is a CIF file.  CIF has been adopted by the International
#  Union of Crystallography as the standard for data archiving and 
#  transmission.
#
#  For information on this file format, follow the CIF links at
#  http://www.iucr.org
##########################################################################

data_Li11Fe12(PO4)12
_symmetry_space_group_name_H-M          'P 1'
_cell_length_a                          4.787
_cell_length_b                          6.01
_cell_length_c                          40.996
_cell_angle_alpha                       90.0
_cell_angle_beta                        90.0
_cell_angle_gamma                       90.0
_chemical_name_systematic               'Generated by pymatgen'
_symmetry_Int_Tables_number             1
_chemical_formula_structural            Li11Fe12(PO4)12
_chemical_formula_sum                   'Li11 Fe12 P12 O48'
_cell_volume                            1179.44959052
_cell_formula_units_Z                   0
loop_
  _symmetry_equiv_pos_site_id
  _symmetry_equiv_pos_as_xyz
   1  'x, y, z'
 
loop_
  _atom_type_symbol
  _atom_type_oxidation_number
   O2-  -2.0
   Fe2+  2.0
   Li+  1.0
   P5+  5.0
 
loop_
  _atom_site_type_symbol
  _atom_site_label
  _atom_site_symmetry_multiplicity
  _atom_site_fract_x
  _atom_site_fract_y
  _atom_site_fract_z
  _atom_site_attached_hydrogens
  _atom_site_B_iso_or_equiv
  _atom_site_occupancy
   Li+  Li1  1  0.000000  0.000000  0.649917  0  .  1
   O2-  O2  1  0.706000  0.750000  0.660829  0  .  1
   P5+  P3  1  0.419210  0.250000  0.673821  0  .  1
   O2-  O4  1  0.743000  0.250000  0.674313  0  .  1
   O2-  O5  1  0.284700  0.046600  0.691670  0  .  1
   O2-  O6  1  0.284700  0.453400  0.691670  0  .  1
   Fe2+  Fe7  1  0.474730  0.750000  0.704805  0  .  1
   Fe2+  Fe8  1  0.974730  0.250000  0.721041  0  .  1
   O2-  O9  1  0.784700  0.546600  0.734176  0  .  1
   O2-  O10  1  0.784700  0.953400  0.734176  0  .  1
   O2-  O11  1  0.243000  0.750000  0.751533  0  .  1
   P5+  P12  1  0.919210  0.750000  0.752025  0  .  1
   O2-  O13  1  0.206000  0.250000  0.765016  0  .  1
   Li+  Li14  1  0.500000  0.000000  0.775929  0  .  1
   Li+  Li15  1  0.500000  0.500000  0.775929  0  .  1
   O2-  O16  1  0.794000  0.750000  0.786842  0  .  1
   P5+  P17  1  0.080790  0.250000  0.799834  0  .  1
   O2-  O18  1  0.757000  0.250000  0.800325  0  .  1
   O2-  O19  1  0.215300  0.046600  0.817682  0  .  1
   O2-  O20  1  0.215300  0.453400  0.817682  0  .  1
   Fe2+  Fe21  1  0.025270  0.750000  0.830818  0  .  1
   Fe2+  Fe22  1  0.525270  0.250000  0.847053  0  .  1
   O2-  O23  1  0.715300  0.546600  0.860189  0  .  1
   O2-  O24  1  0.715300  0.953400  0.860189  0  .  1
   O2-  O25  1  0.257000  0.750000  0.877545  0  .  1
   P5+  P26  1  0.580790  0.750000  0.878037  0  .  1
   O2-  O27  1  0.294000  0.250000  0.134955  0  .  1
   Li+  Li28  1  0.000000  0.500000  0.145868  0  .  1
   Li+  Li29  1  0.000000  0.000000  0.145868  0  .  1
   O2-  O30  1  0.706000  0.750000  0.156780  0  .  1
   P5+  P31  1  0.419210  0.250000  0.169772  0  .  1
   O2-  O32  1  0.743000  0.250000  0.170264  0  .  1
   O2-  O33  1  0.284700  0.453400  0.187621  0  .  1
   O2-  O34  1  0.284700  0.046600  0.187621  0  .  1
   Fe2+  Fe35  1  0.474730  0.750000  0.200756  0  .  1
   Fe2+  Fe36  1  0.974730  0.250000  0.216992  0  .  1
   O2-  O37  1  0.784700  0.546600  0.230127  0  .  1
   O2-  O38  1  0.784700  0.953400  0.230127  0  .  1
   O2-  O39  1  0.243000  0.750000  0.247484  0  .  1
   P5+  P40  1  0.919210  0.750000  0.247975  0  .  1
   O2-  O41  1  0.206000  0.250000  0.260967  0  .  1
   Li+  Li42  1  0.500000  0.000000  0.271880  0  .  1
   Li+  Li43  1  0.500000  0.500000  0.271880  0  .  1
   O2-  O44  1  0.794000  0.750000  0.282793  0  .  1
   P5+  P45  1  0.080790  0.250000  0.295784  0  .  1
   O2-  O46  1  0.757000  0.250000  0.296276  0  .  1
   O2-  O47  1  0.215300  0.453400  0.313633  0  .  1
   O2-  O48  1  0.215300  0.046600  0.313633  0  .  1
   Fe2+  Fe49  1  0.025270  0.750000  0.326768  0  .  1
   Fe2+  Fe50  1  0.525270  0.250000  0.343004  0  .  1
   O2-  O51  1  0.715300  0.953400  0.356139  0  .  1
   O2-  O52  1  0.715300  0.546600  0.356139  0  .  1
   O2-  O53  1  0.257000  0.750000  0.373496  0  .  1
   P5+  P54  1  0.580790  0.750000  0.373988  0  .  1
   O2-  O55  1  0.294000  0.250000  0.386980  0  .  1
   Li+  Li56  1  0.000000  0.500000  0.397892  0  .  1
   Li+  Li57  1  0.000000  0.000000  0.397892  0  .  1
   O2-  O58  1  0.706000  0.750000  0.408805  0  .  1
   P5+  P59  1  0.419210  0.250000  0.421797  0  .  1
   O2-  O60  1  0.743000  0.250000  0.422288  0  .  1
   O2-  O61  1  0.284700  0.046600  0.439645  0  .  1
   O2-  O62  1  0.284700  0.453400  0.439645  0  .  1
   Fe2+  Fe63  1  0.474730  0.750000  0.452781  0  .  1
   Fe2+  Fe64  1  0.974730  0.250000  0.469016  0  .  1
   O2-  O65  1  0.784700  0.546600  0.482152  0  .  1
   O2-  O66  1  0.784700  0.953400  0.482152  0  .  1
   O2-  O67  1  0.243000  0.750000  0.499509  0  .  1
   P5+  P68  1  0.919210  0.750000  0.500000  0  .  1
   O2-  O69  1  0.206000  0.250000  0.512992  0  .  1
   Li+  Li70  1  0.500000  0.500000  0.523905  0  .  1
   Li+  Li71  1  0.500000  0.000000  0.523905  0  .  1
   O2-  O72  1  0.794000  0.750000  0.534817  0  .  1
   P5+  P73  1  0.080790  0.250000  0.547809  0  .  1
   O2-  O74  1  0.757000  0.250000  0.548301  0  .  1
   O2-  O75  1  0.215300  0.453400  0.565657  0  .  1
   O2-  O76  1  0.215300  0.046600  0.565657  0  .  1
   Fe2+  Fe77  1  0.025270  0.750000  0.578793  0  .  1
   Fe2+  Fe78  1  0.525270  0.250000  0.595028  0  .  1
   O2-  O79  1  0.715300  0.546600  0.608164  0  .  1
   O2-  O80  1  0.715300  0.953400  0.608164  0  .  1
   O2-  O81  1  0.257000  0.750000  0.625521  0  .  1
   P5+  P82  1  0.580790  0.750000  0.626012  0  .  1
   O2-  O83  1  0.294000  0.250000  0.639004  0  .  1
 
