#\#CIF1.1
##########################################################################
#               Crystallographic Information Format file 
#               Produced by PyCifRW module
# 
#  This is a CIF file.  CIF has been adopted by the International
#  Union of Crystallography as the standard for data archiving and 
#  transmission.
#
#  For information on this file format, follow the CIF links at
#  http://www.iucr.org
##########################################################################

data_ZnO
_symmetry_space_group_name_H-M          'P 1'
_cell_length_a                          3.253
_cell_length_b                          5.213
_cell_length_c                          16.268722554
_cell_angle_alpha                       90.0
_cell_angle_beta                        90.0
_cell_angle_gamma                       90.0
_chemical_name_systematic               'Generated by pymatgen'
_symmetry_Int_Tables_number             1
_chemical_formula_structural            ZnO
_chemical_formula_sum                   'Zn8 O8'
_cell_volume                            275.883191243
_cell_formula_units_Z                   0
loop_
  _symmetry_equiv_pos_site_id
  _symmetry_equiv_pos_as_xyz
   1  'x, y, z'
 
loop_
  _atom_type_symbol
  _atom_type_oxidation_number
   Zn2+  2.0
   O2-  -2.0
 
loop_
  _atom_site_type_symbol
  _atom_site_label
  _atom_site_symmetry_multiplicity
  _atom_site_fract_x
  _atom_site_fract_y
  _atom_site_fract_z
  _atom_site_attached_hydrogens
  _atom_site_B_iso_or_equiv
  _atom_site_occupancy
   Zn2+  Zn1  1  0.499950  0.000000  0.788598  0  .  1
   O2-  O2  1  0.499950  0.382000  0.788598  0  .  1
   Zn2+  Zn3  1  0.000050  0.500000  0.846331  0  .  1
   O2-  O4  1  0.000050  0.882000  0.846331  0  .  1
   O2-  O5  1  0.999950  0.382000  0.269101  0  .  1
   Zn2+  Zn6  1  0.999950  1.000000  0.269101  0  .  1
   Zn2+  Zn7  1  0.500050  0.500000  0.326835  0  .  1
   O2-  O8  1  0.500050  0.882000  0.326835  0  .  1
   Zn2+  Zn9  1  0.499950  0.000000  0.442267  0  .  1
   O2-  O10  1  0.499950  0.382000  0.442267  0  .  1
   Zn2+  Zn11  1  0.000050  0.500000  0.500000  0  .  1
   O2-  O12  1  0.000050  0.882000  0.500000  0  .  1
   Zn2+  Zn13  1  0.999950  0.000000  0.615432  0  .  1
   O2-  O14  1  0.999950  0.382000  0.615432  0  .  1
   Zn2+  Zn15  1  0.500050  0.500000  0.673165  0  .  1
   O2-  O16  1  0.500050  0.882000  0.673165  0  .  1
 
