#\#CIF1.1
##########################################################################
#               Crystallographic Information Format file 
#               Produced by PyCifRW module
# 
#  This is a CIF file.  CIF has been adopted by the International
#  Union of Crystallography as the standard for data archiving and 
#  transmission.
#
#  For information on this file format, follow the CIF links at
#  http://www.iucr.org
##########################################################################

data_Te5I6
_symmetry_space_group_name_H-M          'P 1'
_cell_length_a                          9.958
_cell_length_b                          7.992
_cell_length_c                          24.636
_cell_angle_alpha                       104.37
_cell_angle_beta                        90.13
_cell_angle_gamma                       102.89
_chemical_name_systematic               'Generated by pymatgen'
_symmetry_Int_Tables_number             1
_chemical_formula_structural            Te5I6
_chemical_formula_sum                   'Te10 I12'
_cell_volume                            1847.98407968
_cell_formula_units_Z                   0
loop_
  _symmetry_equiv_pos_site_id
  _symmetry_equiv_pos_as_xyz
   1  'x, y, z'
 
loop_
  _atom_type_symbol
  _atom_type_oxidation_number
   Te+  1.0
   I-  -1.0
 
loop_
  _atom_site_type_symbol
  _atom_site_label
  _atom_site_symmetry_multiplicity
  _atom_site_fract_x
  _atom_site_fract_y
  _atom_site_fract_z
  _atom_site_attached_hydrogens
  _atom_site_B_iso_or_equiv
  _atom_site_occupancy
   I-  I1  1  0.828680  0.197640  0.219010  0  .  1
   I-  I2  1  0.461580  0.212940  0.227527  0  .  1
   Te+  Te3  1  0.190050  0.231420  0.228513  0  .  1
   I-  I4  1  0.932660  0.799730  0.270037  0  .  1
   Te+  Te5  1  0.288740  0.772800  0.271730  0  .  1
   I-  I6  1  0.566700  0.788530  0.273090  0  .  1
   Te+  Te7  1  0.200120  0.501050  0.326273  0  .  1
   Te+  Te8  1  0.799880  0.498950  0.340393  0  .  1
   I-  I9  1  0.433300  0.211470  0.393577  0  .  1
   Te+  Te10  1  0.711260  0.227200  0.394937  0  .  1
   I-  I11  1  0.067340  0.200270  0.396630  0  .  1
   Te+  Te12  1  0.809950  0.768580  0.438153  0  .  1
   I-  I13  1  0.538420  0.787060  0.439140  0  .  1
   I-  I14  1  0.171320  0.802360  0.447657  0  .  1
   Te+  Te15  1  0.806540  0.495140  0.498540  0  .  1
   Te+  Te16  1  0.193460  0.504860  0.501460  0  .  1
   I-  I17  1  0.828680  0.197640  0.552343  0  .  1
   I-  I18  1  0.461580  0.212940  0.560860  0  .  1
   Te+  Te19  1  0.190050  0.231420  0.561847  0  .  1
   I-  I20  1  0.932660  0.799730  0.603370  0  .  1
   Te+  Te21  1  0.288740  0.772800  0.605063  0  .  1
   I-  I22  1  0.566700  0.788530  0.606423  0  .  1
 
