#\#CIF1.1
##########################################################################
#               Crystallographic Information Format file 
#               Produced by PyCifRW module
# 
#  This is a CIF file.  CIF has been adopted by the International
#  Union of Crystallography as the standard for data archiving and 
#  transmission.
#
#  For information on this file format, follow the CIF links at
#  http://www.iucr.org
##########################################################################

data_Ba3Ti2O7
_symmetry_space_group_name_H-M          'P 1'
_cell_length_a                          4.006
_cell_length_b                          4.006
_cell_length_c                          20.03
_cell_angle_alpha                       90.0
_cell_angle_beta                        90.0
_cell_angle_gamma                       90.0
_chemical_name_systematic               'Generated by pymatgen'
_symmetry_Int_Tables_number             1
_chemical_formula_structural            Ba3Ti2O7
_chemical_formula_sum                   'Ba3 Ti2 O7'
_cell_volume                            321.44216108
_cell_formula_units_Z                   0
loop_
  _symmetry_equiv_pos_site_id
  _symmetry_equiv_pos_as_xyz
   1  'x, y, z'
 
loop_
  _atom_type_symbol
  _atom_type_oxidation_number
   Ba2+  2.0
   O2-  -2.0
   Ti4+  4.0
 
loop_
  _atom_site_type_symbol
  _atom_site_label
  _atom_site_symmetry_multiplicity
  _atom_site_fract_x
  _atom_site_fract_y
  _atom_site_fract_z
  _atom_site_attached_hydrogens
  _atom_site_B_iso_or_equiv
  _atom_site_occupancy
   O2-  O1  1  0.500000  0.500000  0.200000  0  .  1
   Ba2+  Ba2  1  0.000000  0.000000  0.200000  0  .  1
   O2-  O3  1  0.000000  0.500000  0.300000  0  .  1
   O2-  O4  1  0.500000  0.000000  0.300000  0  .  1
   Ti4+  Ti5  1  0.500000  0.500000  0.300000  0  .  1
   Ba2+  Ba6  1  0.000000  0.000000  0.649626  0  .  1
   O2-  O7  1  0.500000  0.500000  0.649626  0  .  1
   O2-  O8  1  0.000000  0.500000  0.749626  0  .  1
   O2-  O9  1  0.500000  0.000000  0.749626  0  .  1
   Ti4+  Ti10  1  0.500000  0.500000  0.749626  0  .  1
   Ba2+  Ba11  1  0.000000  0.000000  0.849626  0  .  1
   O2-  O12  1  0.500000  0.500000  0.849626  0  .  1
 
