#\#CIF1.1
##########################################################################
#               Crystallographic Information Format file 
#               Produced by PyCifRW module
# 
#  This is a CIF file.  CIF has been adopted by the International
#  Union of Crystallography as the standard for data archiving and 
#  transmission.
#
#  For information on this file format, follow the CIF links at
#  http://www.iucr.org
##########################################################################

data_TeI
_symmetry_space_group_name_H-M          'P 1'
_cell_length_a                          7.992
_cell_length_b                          8.212
_cell_length_c                          29.874
_cell_angle_alpha                       90.13
_cell_angle_beta                        102.89
_cell_angle_gamma                       104.37
_chemical_name_systematic               'Generated by pymatgen'
_symmetry_Int_Tables_number             1
_chemical_formula_structural            TeI
_chemical_formula_sum                   'Te8 I8'
_cell_volume                            1847.98407968
_cell_formula_units_Z                   0
loop_
  _symmetry_equiv_pos_site_id
  _symmetry_equiv_pos_as_xyz
   1  'x, y, z'
 
loop_
  _atom_type_symbol
  _atom_type_oxidation_number
   Te+  1.0
   I-  -1.0
 
loop_
  _atom_site_type_symbol
  _atom_site_label
  _atom_site_symmetry_multiplicity
  _atom_site_fract_x
  _atom_site_fract_y
  _atom_site_fract_z
  _atom_site_attached_hydrogens
  _atom_site_B_iso_or_equiv
  _atom_site_occupancy
   I-  I1  1  0.200270  0.189890  0.022447  0  .  1
   I-  I2  1  0.802360  0.342970  0.057107  0  .  1
   Te+  Te3  1  0.231420  0.685540  0.063350  0  .  1
   Te+  Te4  1  0.504860  0.504380  0.064487  0  .  1
   Te+  Te5  1  0.501050  0.978820  0.066707  0  .  1
   Te+  Te6  1  0.772800  0.815190  0.096247  0  .  1
   I-  I7  1  0.211470  0.180730  0.144433  0  .  1
   I-  I8  1  0.212940  0.682580  0.153860  0  .  1
   I-  I9  1  0.787060  0.317420  0.179473  0  .  1
   I-  I10  1  0.788530  0.819270  0.188900  0  .  1
   Te+  Te11  1  0.227200  0.184810  0.409104  0  .  1
   Te+  Te12  1  0.498950  0.021180  0.438644  0  .  1
   Te+  Te13  1  0.495140  0.495620  0.440864  0  .  1
   Te+  Te14  1  0.768580  0.314460  0.442000  0  .  1
   I-  I15  1  0.197640  0.657030  0.448244  0  .  1
   I-  I16  1  0.799730  0.810110  0.482904  0  .  1
 
