#\#CIF1.1
##########################################################################
#               Crystallographic Information Format file 
#               Produced by PyCifRW module
# 
#  This is a CIF file.  CIF has been adopted by the International
#  Union of Crystallography as the standard for data archiving and 
#  transmission.
#
#  For information on this file format, follow the CIF links at
#  http://www.iucr.org
##########################################################################

data_Li10Fe9P9O32
_symmetry_space_group_name_H-M          'P 1'
_cell_length_a                          10.332
_cell_length_b                          6.01
_cell_length_c                          19.148
_cell_angle_alpha                       90.0
_cell_angle_beta                        90.0
_cell_angle_gamma                       90.0
_chemical_name_systematic               'Generated by pymatgen'
_symmetry_Int_Tables_number             1
_chemical_formula_structural            Li10Fe9P9O32
_chemical_formula_sum                   'Li10 Fe9 P9 O32'
_cell_volume                            1189.00118736
_cell_formula_units_Z                   0
loop_
  _symmetry_equiv_pos_site_id
  _symmetry_equiv_pos_as_xyz
   1  'x, y, z'
 
loop_
  _atom_type_symbol
  _atom_type_oxidation_number
   O2-  -2.0
   Fe2+  2.0
   Li+  1.0
   P5+  5.0
 
loop_
  _atom_site_type_symbol
  _atom_site_label
  _atom_site_symmetry_multiplicity
  _atom_site_fract_x
  _atom_site_fract_y
  _atom_site_fract_z
  _atom_site_attached_hydrogens
  _atom_site_B_iso_or_equiv
  _atom_site_occupancy
   P5+  P1  1  0.094850  0.250000  0.104803  0  .  1
   Fe2+  Fe2  1  0.217790  0.750000  0.118683  0  .  1
   Li+  Li3  1  0.500000  0.000000  0.125000  0  .  1
   Li+  Li4  1  0.500000  0.500000  0.125000  0  .  1
   Fe2+  Fe5  1  0.782210  0.250000  0.131318  0  .  1
   P5+  P6  1  0.905150  0.750000  0.145197  0  .  1
   O2-  O7  1  0.043300  0.750000  0.176500  0  .  1
   O2-  O8  1  0.834330  0.546600  0.178825  0  .  1
   O2-  O9  1  0.834330  0.953400  0.178825  0  .  1
   O2-  O10  1  0.096800  0.250000  0.185750  0  .  1
   O2-  O11  1  0.596800  0.250000  0.189250  0  .  1
   O2-  O12  1  0.334330  0.546600  0.196175  0  .  1
   O2-  O13  1  0.334330  0.953400  0.196175  0  .  1
   O2-  O14  1  0.543300  0.750000  0.198500  0  .  1
   P5+  P15  1  0.405150  0.750000  0.229803  0  .  1
   Fe2+  Fe16  1  0.282210  0.250000  0.243682  0  .  1
   Li+  Li17  1  0.000000  0.000000  0.250000  0  .  1
   Li+  Li18  1  0.000000  0.500000  0.250000  0  .  1
   Fe2+  Fe19  1  0.717790  0.750000  0.256317  0  .  1
   P5+  P20  1  0.594850  0.250000  0.426872  0  .  1
   O2-  O21  1  0.456700  0.250000  0.458174  0  .  1
   O2-  O22  1  0.665670  0.046600  0.460499  0  .  1
   O2-  O23  1  0.665670  0.453400  0.460499  0  .  1
   O2-  O24  1  0.403200  0.750000  0.467424  0  .  1
   O2-  O25  1  0.903200  0.750000  0.470924  0  .  1
   O2-  O26  1  0.165670  0.046600  0.477849  0  .  1
   O2-  O27  1  0.165670  0.453400  0.477849  0  .  1
   O2-  O28  1  0.956700  0.250000  0.480174  0  .  1
   P5+  P29  1  0.094850  0.250000  0.511477  0  .  1
   Fe2+  Fe30  1  0.217790  0.750000  0.525357  0  .  1
   Li+  Li31  1  0.500000  0.000000  0.531674  0  .  1
   Li+  Li32  1  0.500000  0.500000  0.531674  0  .  1
   Fe2+  Fe33  1  0.782210  0.250000  0.537992  0  .  1
   P5+  P34  1  0.905150  0.750000  0.551872  0  .  1
   O2-  O35  1  0.043300  0.750000  0.583174  0  .  1
   O2-  O36  1  0.834330  0.546600  0.585499  0  .  1
   O2-  O37  1  0.834330  0.953400  0.585499  0  .  1
   O2-  O38  1  0.096800  0.250000  0.592424  0  .  1
   O2-  O39  1  0.596800  0.250000  0.595924  0  .  1
   O2-  O40  1  0.334330  0.546600  0.602849  0  .  1
   O2-  O41  1  0.334330  0.953400  0.602849  0  .  1
   O2-  O42  1  0.543300  0.750000  0.605174  0  .  1
   P5+  P43  1  0.405150  0.750000  0.636477  0  .  1
   Fe2+  Fe44  1  0.282210  0.250000  0.650357  0  .  1
   Li+  Li45  1  0.000000  0.000000  0.656674  0  .  1
   Li+  Li46  1  0.000000  0.500000  0.656674  0  .  1
   Fe2+  Fe47  1  0.717790  0.750000  0.662992  0  .  1
   P5+  P48  1  0.594850  0.250000  0.676872  0  .  1
   O2-  O49  1  0.456700  0.250000  0.708174  0  .  1
   O2-  O50  1  0.665670  0.046600  0.710499  0  .  1
   O2-  O51  1  0.665670  0.453400  0.710499  0  .  1
   O2-  O52  1  0.403200  0.750000  0.717424  0  .  1
   O2-  O53  1  0.903200  0.750000  0.720924  0  .  1
   O2-  O54  1  0.165670  0.046600  0.727849  0  .  1
   O2-  O55  1  0.165670  0.453400  0.727849  0  .  1
   O2-  O56  1  0.956700  0.250000  0.730174  0  .  1
   P5+  P57  1  0.094850  0.250000  0.761477  0  .  1
   Fe2+  Fe58  1  0.217790  0.750000  0.775357  0  .  1
   Li+  Li59  1  0.500000  0.000000  0.781674  0  .  1
   Li+  Li60  1  0.500000  0.500000  0.781674  0  .  1
 
