#\#CIF1.1
##########################################################################
#               Crystallographic Information Format file 
#               Produced by PyCifRW module
# 
#  This is a CIF file.  CIF has been adopted by the International
#  Union of Crystallography as the standard for data archiving and 
#  transmission.
#
#  For information on this file format, follow the CIF links at
#  http://www.iucr.org
##########################################################################

data_Li2Fe2P2O7
_symmetry_space_group_name_H-M          'P 1'
_cell_length_a                          6.01
_cell_length_b                          4.787
_cell_length_c                          20.664
_cell_angle_alpha                       90.0
_cell_angle_beta                        90.0
_cell_angle_gamma                       90.0
_chemical_name_systematic               'Generated by pymatgen'
_symmetry_Int_Tables_number             1
_chemical_formula_structural            Li2Fe2P2O7
_chemical_formula_sum                   'Li4 Fe4 P4 O14'
_cell_volume                            594.50059368
_cell_formula_units_Z                   0
loop_
  _symmetry_equiv_pos_site_id
  _symmetry_equiv_pos_as_xyz
   1  'x, y, z'
 
loop_
  _atom_type_symbol
  _atom_type_oxidation_number
   O2-  -2.0
   Fe2+  2.0
   Li+  1.0
   P5+  5.0
 
loop_
  _atom_site_type_symbol
  _atom_site_label
  _atom_site_symmetry_multiplicity
  _atom_site_fract_x
  _atom_site_fract_y
  _atom_site_fract_z
  _atom_site_attached_hydrogens
  _atom_site_B_iso_or_equiv
  _atom_site_occupancy
   Fe2+  Fe1  1  0.750000  0.474730  0.108895  0  .  1
   Fe2+  Fe2  1  0.250000  0.974730  0.141105  0  .  1
   O2-  O3  1  0.546600  0.784700  0.167165  0  .  1
   O2-  O4  1  0.953400  0.784700  0.167165  0  .  1
   O2-  O5  1  0.750000  0.243000  0.346780  0  .  1
   P5+  P6  1  0.750000  0.919210  0.347755  0  .  1
   O2-  O7  1  0.250000  0.206000  0.373530  0  .  1
   Li+  Li8  1  0.000000  0.500000  0.395180  0  .  1
   Li+  Li9  1  0.500000  0.500000  0.395180  0  .  1
   O2-  O10  1  0.750000  0.794000  0.416830  0  .  1
   P5+  P11  1  0.250000  0.080790  0.442605  0  .  1
   O2-  O12  1  0.250000  0.757000  0.443580  0  .  1
   O2-  O13  1  0.046600  0.215300  0.478015  0  .  1
   O2-  O14  1  0.453400  0.215300  0.478015  0  .  1
   Fe2+  Fe15  1  0.750000  0.025270  0.504075  0  .  1
   Fe2+  Fe16  1  0.250000  0.525270  0.536285  0  .  1
   O2-  O17  1  0.546600  0.715300  0.562345  0  .  1
   O2-  O18  1  0.953400  0.715300  0.562345  0  .  1
   O2-  O19  1  0.750000  0.257000  0.596780  0  .  1
   P5+  P20  1  0.750000  0.580790  0.597755  0  .  1
   O2-  O21  1  0.250000  0.294000  0.623530  0  .  1
   Li+  Li22  1  0.000000  0.000000  0.645180  0  .  1
   Li+  Li23  1  0.500000  0.000000  0.645180  0  .  1
   O2-  O24  1  0.750000  0.706000  0.666830  0  .  1
   P5+  P25  1  0.250000  0.419210  0.692605  0  .  1
   O2-  O26  1  0.250000  0.743000  0.693580  0  .  1
 
