#\#CIF1.1
##########################################################################
#               Crystallographic Information Format file 
#               Produced by PyCifRW module
# 
#  This is a CIF file.  CIF has been adopted by the International
#  Union of Crystallography as the standard for data archiving and 
#  transmission.
#
#  For information on this file format, follow the CIF links at
#  http://www.iucr.org
##########################################################################

data_ZnO
_symmetry_space_group_name_H-M          'P 1'
_cell_length_a                          3.253
_cell_length_b                          5.213
_cell_length_c                          19.518
_cell_angle_alpha                       90.0
_cell_angle_beta                        120.0
_cell_angle_gamma                       90.0
_chemical_name_systematic               'Generated by pymatgen'
_symmetry_Int_Tables_number             1
_chemical_formula_structural            ZnO
_chemical_formula_sum                   'Zn7 O7'
_cell_volume                            286.640619365
_cell_formula_units_Z                   0
loop_
  _symmetry_equiv_pos_site_id
  _symmetry_equiv_pos_as_xyz
   1  'x, y, z'
 
loop_
  _atom_type_symbol
  _atom_type_oxidation_number
   Zn2+  2.0
   O2-  -2.0
 
loop_
  _atom_site_type_symbol
  _atom_site_label
  _atom_site_symmetry_multiplicity
  _atom_site_fract_x
  _atom_site_fract_y
  _atom_site_fract_z
  _atom_site_attached_hydrogens
  _atom_site_B_iso_or_equiv
  _atom_site_occupancy
   O2-  O1  1  0.666600  0.382000  0.055550  0  .  1
   Zn2+  Zn2  1  0.666600  0.000000  0.055550  0  .  1
   Zn2+  Zn3  1  0.333400  0.500000  0.406921  0  .  1
   O2-  O4  1  0.333400  0.882000  0.406921  0  .  1
   O2-  O5  1  0.666600  0.382000  0.518021  0  .  1
   Zn2+  Zn6  1  0.666600  0.000000  0.518021  0  .  1
   Zn2+  Zn7  1  0.333400  0.500000  0.573587  0  .  1
   O2-  O8  1  0.333400  0.882000  0.573587  0  .  1
   O2-  O9  1  0.666600  0.382000  0.684687  0  .  1
   Zn2+  Zn10  1  0.666600  0.000000  0.684687  0  .  1
   Zn2+  Zn11  1  0.333400  0.500000  0.740254  0  .  1
   O2-  O12  1  0.333400  0.882000  0.740254  0  .  1
   O2-  O13  1  0.666600  0.382000  0.851354  0  .  1
   Zn2+  Zn14  1  0.666600  0.000000  0.851354  0  .  1
 
