#\#CIF1.1
##########################################################################
#               Crystallographic Information Format file 
#               Produced by PyCifRW module
# 
#  This is a CIF file.  CIF has been adopted by the International
#  Union of Crystallography as the standard for data archiving and 
#  transmission.
#
#  For information on this file format, follow the CIF links at
#  http://www.iucr.org
##########################################################################

data_Zn4O3
_symmetry_space_group_name_H-M          'P 1'
_cell_length_a                          3.253
_cell_length_b                          3.253
_cell_length_c                          15.639
_cell_angle_alpha                       90.0
_cell_angle_beta                        90.0
_cell_angle_gamma                       120.0
_chemical_name_systematic               'Generated by pymatgen'
_symmetry_Int_Tables_number             1
_chemical_formula_structural            Zn4O3
_chemical_formula_sum                   'Zn4 O3'
_cell_volume                            143.320309682
_cell_formula_units_Z                   0
loop_
  _symmetry_equiv_pos_site_id
  _symmetry_equiv_pos_as_xyz
   1  'x, y, z'
 
loop_
  _atom_type_symbol
  _atom_type_oxidation_number
   Zn2+  2.0
   O2-  -2.0
 
loop_
  _atom_site_type_symbol
  _atom_site_label
  _atom_site_symmetry_multiplicity
  _atom_site_fract_x
  _atom_site_fract_y
  _atom_site_fract_z
  _atom_site_attached_hydrogens
  _atom_site_B_iso_or_equiv
  _atom_site_occupancy
   Zn2+  Zn1  1  0.666700  0.333400  0.166667  0  .  1
   O2-  O2  1  0.666700  0.333400  0.294000  0  .  1
   Zn2+  Zn3  1  0.333300  0.666600  0.333333  0  .  1
   O2-  O4  1  0.333300  0.666600  0.460667  0  .  1
   Zn2+  Zn5  1  0.666700  0.333400  0.691828  0  .  1
   O2-  O6  1  0.666700  0.333400  0.819161  0  .  1
   Zn2+  Zn7  1  0.333300  0.666600  0.858495  0  .  1
 
