#\#CIF1.1
##########################################################################
#               Crystallographic Information Format file 
#               Produced by PyCifRW module
# 
#  This is a CIF file.  CIF has been adopted by the International
#  Union of Crystallography as the standard for data archiving and 
#  transmission.
#
#  For information on this file format, follow the CIF links at
#  http://www.iucr.org
##########################################################################

data_LiFePO4
_symmetry_space_group_name_H-M          'P 1'
_cell_length_a                          6.01
_cell_length_b                          10.332
_cell_length_c                          28.722
_cell_angle_alpha                       90.0
_cell_angle_beta                        90.0
_cell_angle_gamma                       90.0
_chemical_name_systematic               'Generated by pymatgen'
_symmetry_Int_Tables_number             1
_chemical_formula_structural            LiFePO4
_chemical_formula_sum                   'Li12 Fe12 P12 O48'
_cell_volume                            1783.50178104
_cell_formula_units_Z                   0
loop_
  _symmetry_equiv_pos_site_id
  _symmetry_equiv_pos_as_xyz
   1  'x, y, z'
 
loop_
  _atom_type_symbol
  _atom_type_oxidation_number
   O2-  -2.0
   Fe2+  2.0
   Li+  1.0
   P5+  5.0
 
loop_
  _atom_site_type_symbol
  _atom_site_label
  _atom_site_symmetry_multiplicity
  _atom_site_fract_x
  _atom_site_fract_y
  _atom_site_fract_z
  _atom_site_attached_hydrogens
  _atom_site_B_iso_or_equiv
  _atom_site_occupancy
   Fe2+  Fe1  1  0.750000  0.717790  0.740747  0  .  1
   P5+  P2  1  0.250000  0.594850  0.750000  0  .  1
   O2-  O3  1  0.250000  0.456700  0.270868  0  .  1
   O2-  O4  1  0.046600  0.665670  0.272418  0  .  1
   O2-  O5  1  0.453400  0.665670  0.272418  0  .  1
   O2-  O6  1  0.750000  0.403200  0.277035  0  .  1
   O2-  O7  1  0.750000  0.903200  0.279368  0  .  1
   O2-  O8  1  0.453400  0.165670  0.283985  0  .  1
   O2-  O9  1  0.046600  0.165670  0.283985  0  .  1
   O2-  O10  1  0.250000  0.956700  0.285535  0  .  1
   P5+  P11  1  0.250000  0.094850  0.306403  0  .  1
   Fe2+  Fe12  1  0.750000  0.217790  0.315657  0  .  1
   Li+  Li13  1  0.500000  0.500000  0.319868  0  .  1
   Li+  Li14  1  0.000000  0.500000  0.319868  0  .  1
   Fe2+  Fe15  1  0.250000  0.782210  0.324080  0  .  1
   P5+  P16  1  0.750000  0.905150  0.333333  0  .  1
   O2-  O17  1  0.750000  0.043300  0.354202  0  .  1
   O2-  O18  1  0.546600  0.834330  0.355752  0  .  1
   O2-  O19  1  0.953400  0.834330  0.355752  0  .  1
   O2-  O20  1  0.250000  0.096800  0.360368  0  .  1
   O2-  O21  1  0.250000  0.596800  0.362702  0  .  1
   O2-  O22  1  0.546600  0.334330  0.367318  0  .  1
   O2-  O23  1  0.953400  0.334330  0.367318  0  .  1
   O2-  O24  1  0.750000  0.543300  0.368868  0  .  1
   P5+  P25  1  0.750000  0.405150  0.389737  0  .  1
   Fe2+  Fe26  1  0.250000  0.282210  0.398990  0  .  1
   Li+  Li27  1  0.000000  0.000000  0.403202  0  .  1
   Li+  Li28  1  0.500000  0.000000  0.403202  0  .  1
   Fe2+  Fe29  1  0.750000  0.717790  0.407413  0  .  1
   P5+  P30  1  0.250000  0.594850  0.416667  0  .  1
   O2-  O31  1  0.250000  0.456700  0.437535  0  .  1
   O2-  O32  1  0.453400  0.665670  0.439085  0  .  1
   O2-  O33  1  0.046600  0.665670  0.439085  0  .  1
   O2-  O34  1  0.750000  0.403200  0.443702  0  .  1
   O2-  O35  1  0.750000  0.903200  0.446035  0  .  1
   O2-  O36  1  0.046600  0.165670  0.450652  0  .  1
   O2-  O37  1  0.453400  0.165670  0.450652  0  .  1
   O2-  O38  1  0.250000  0.956700  0.452202  0  .  1
   P5+  P39  1  0.250000  0.094850  0.473070  0  .  1
   Fe2+  Fe40  1  0.750000  0.217790  0.482323  0  .  1
   Li+  Li41  1  0.000000  0.500000  0.486535  0  .  1
   Li+  Li42  1  0.500000  0.500000  0.486535  0  .  1
   Fe2+  Fe43  1  0.250000  0.782210  0.490747  0  .  1
   P5+  P44  1  0.750000  0.905150  0.500000  0  .  1
   O2-  O45  1  0.750000  0.043300  0.520868  0  .  1
   O2-  O46  1  0.546600  0.834330  0.522418  0  .  1
   O2-  O47  1  0.953400  0.834330  0.522418  0  .  1
   O2-  O48  1  0.250000  0.096800  0.527035  0  .  1
   O2-  O49  1  0.250000  0.596800  0.529368  0  .  1
   O2-  O50  1  0.953400  0.334330  0.533985  0  .  1
   O2-  O51  1  0.546600  0.334330  0.533985  0  .  1
   O2-  O52  1  0.750000  0.543300  0.535535  0  .  1
   P5+  P53  1  0.750000  0.405150  0.556403  0  .  1
   Fe2+  Fe54  1  0.250000  0.282210  0.565657  0  .  1
   Li+  Li55  1  0.000000  0.000000  0.569868  0  .  1
   Li+  Li56  1  0.500000  0.000000  0.569868  0  .  1
   Fe2+  Fe57  1  0.750000  0.717790  0.574080  0  .  1
   P5+  P58  1  0.250000  0.594850  0.583333  0  .  1
   O2-  O59  1  0.250000  0.456700  0.604202  0  .  1
   O2-  O60  1  0.046600  0.665670  0.605752  0  .  1
   O2-  O61  1  0.453400  0.665670  0.605752  0  .  1
   O2-  O62  1  0.750000  0.403200  0.610368  0  .  1
   O2-  O63  1  0.750000  0.903200  0.612702  0  .  1
   O2-  O64  1  0.046600  0.165670  0.617318  0  .  1
   O2-  O65  1  0.453400  0.165670  0.617318  0  .  1
   O2-  O66  1  0.250000  0.956700  0.618868  0  .  1
   P5+  P67  1  0.250000  0.094850  0.639737  0  .  1
   Fe2+  Fe68  1  0.750000  0.217790  0.648990  0  .  1
   Li+  Li69  1  0.000000  0.500000  0.653202  0  .  1
   Li+  Li70  1  0.500000  0.500000  0.653202  0  .  1
   Fe2+  Fe71  1  0.250000  0.782210  0.657413  0  .  1
   P5+  P72  1  0.750000  0.905150  0.666667  0  .  1
   O2-  O73  1  0.750000  0.043300  0.687535  0  .  1
   O2-  O74  1  0.546600  0.834330  0.689085  0  .  1
   O2-  O75  1  0.953400  0.834330  0.689085  0  .  1
   O2-  O76  1  0.250000  0.096800  0.693702  0  .  1
   O2-  O77  1  0.250000  0.596800  0.696035  0  .  1
   O2-  O78  1  0.546600  0.334330  0.700652  0  .  1
   O2-  O79  1  0.953400  0.334330  0.700652  0  .  1
   O2-  O80  1  0.750000  0.543300  0.702202  0  .  1
   P5+  P81  1  0.750000  0.405150  0.723070  0  .  1
   Fe2+  Fe82  1  0.250000  0.282210  0.732323  0  .  1
   Li+  Li83  1  0.000000  0.000000  0.736535  0  .  1
   Li+  Li84  1  0.500000  0.000000  0.736535  0  .  1
 
