#\#CIF1.1
##########################################################################
#               Crystallographic Information Format file 
#               Produced by PyCifRW module
# 
#  This is a CIF file.  CIF has been adopted by the International
#  Union of Crystallography as the standard for data archiving and 
#  transmission.
#
#  For information on this file format, follow the CIF links at
#  http://www.iucr.org
##########################################################################

data_Li11Fe12(PO4)12
_symmetry_space_group_name_H-M          'P 1'
_cell_length_a                          6.01
_cell_length_b                          10.332
_cell_length_c                          24.361
_cell_angle_alpha                       90.0
_cell_angle_beta                        90.0
_cell_angle_gamma                       90.0
_chemical_name_systematic               'Generated by pymatgen'
_symmetry_Int_Tables_number             1
_chemical_formula_structural            Li11Fe12(PO4)12
_chemical_formula_sum                   'Li11 Fe12 P12 O48'
_cell_volume                            1512.70409052
_cell_formula_units_Z                   0
loop_
  _symmetry_equiv_pos_site_id
  _symmetry_equiv_pos_as_xyz
   1  'x, y, z'
 
loop_
  _atom_type_symbol
  _atom_type_oxidation_number
   O2-  -2.0
   Fe2+  2.0
   Li+  1.0
   P5+  5.0
 
loop_
  _atom_site_type_symbol
  _atom_site_label
  _atom_site_symmetry_multiplicity
  _atom_site_fract_x
  _atom_site_fract_y
  _atom_site_fract_z
  _atom_site_attached_hydrogens
  _atom_site_B_iso_or_equiv
  _atom_site_occupancy
   Li+  Li1  1  0.000000  0.000000  0.654196  0  .  1
   Fe2+  Fe2  1  0.750000  0.717790  0.659161  0  .  1
   P5+  P3  1  0.250000  0.594850  0.670071  0  .  1
   O2-  O4  1  0.250000  0.456700  0.694675  0  .  1
   O2-  O5  1  0.046600  0.665670  0.696503  0  .  1
   O2-  O6  1  0.453400  0.665670  0.696503  0  .  1
   O2-  O7  1  0.750000  0.403200  0.701946  0  .  1
   O2-  O8  1  0.750000  0.903200  0.704697  0  .  1
   O2-  O9  1  0.453400  0.165670  0.710140  0  .  1
   O2-  O10  1  0.046600  0.165670  0.710140  0  .  1
   O2-  O11  1  0.250000  0.956700  0.711967  0  .  1
   P5+  P12  1  0.250000  0.094850  0.736571  0  .  1
   Fe2+  Fe13  1  0.750000  0.217790  0.747481  0  .  1
   Li+  Li14  1  0.500000  0.500000  0.752447  0  .  1
   Li+  Li15  1  0.000000  0.500000  0.752447  0  .  1
   Fe2+  Fe16  1  0.250000  0.782210  0.757413  0  .  1
   P5+  P17  1  0.750000  0.905150  0.768322  0  .  1
   O2-  O18  1  0.750000  0.043300  0.792926  0  .  1
   O2-  O19  1  0.546600  0.834330  0.794754  0  .  1
   O2-  O20  1  0.953400  0.834330  0.794754  0  .  1
   O2-  O21  1  0.250000  0.096800  0.210689  0  .  1
   O2-  O22  1  0.250000  0.596800  0.213440  0  .  1
   O2-  O23  1  0.546600  0.334330  0.218883  0  .  1
   O2-  O24  1  0.953400  0.334330  0.218883  0  .  1
   O2-  O25  1  0.750000  0.543300  0.220711  0  .  1
   P5+  P26  1  0.750000  0.405150  0.245315  0  .  1
   Fe2+  Fe27  1  0.250000  0.282210  0.256225  0  .  1
   Li+  Li28  1  0.000000  0.000000  0.261190  0  .  1
   Li+  Li29  1  0.500000  0.000000  0.261190  0  .  1
   Fe2+  Fe30  1  0.750000  0.717790  0.266156  0  .  1
   P5+  P31  1  0.250000  0.594850  0.277066  0  .  1
   O2-  O32  1  0.250000  0.456700  0.301670  0  .  1
   O2-  O33  1  0.453400  0.665670  0.303497  0  .  1
   O2-  O34  1  0.046600  0.665670  0.303497  0  .  1
   O2-  O35  1  0.750000  0.403200  0.308941  0  .  1
   O2-  O36  1  0.750000  0.903200  0.311692  0  .  1
   O2-  O37  1  0.046600  0.165670  0.317135  0  .  1
   O2-  O38  1  0.453400  0.165670  0.317135  0  .  1
   O2-  O39  1  0.250000  0.956700  0.318962  0  .  1
   P5+  P40  1  0.250000  0.094850  0.343566  0  .  1
   Fe2+  Fe41  1  0.750000  0.217790  0.354476  0  .  1
   Li+  Li42  1  0.000000  0.500000  0.359442  0  .  1
   Li+  Li43  1  0.500000  0.500000  0.359442  0  .  1
   Fe2+  Fe44  1  0.250000  0.782210  0.364407  0  .  1
   P5+  P45  1  0.750000  0.905150  0.375317  0  .  1
   O2-  O46  1  0.750000  0.043300  0.399921  0  .  1
   O2-  O47  1  0.546600  0.834330  0.401749  0  .  1
   O2-  O48  1  0.953400  0.834330  0.401749  0  .  1
   O2-  O49  1  0.250000  0.096800  0.407192  0  .  1
   O2-  O50  1  0.250000  0.596800  0.409943  0  .  1
   O2-  O51  1  0.953400  0.334330  0.415386  0  .  1
   O2-  O52  1  0.546600  0.334330  0.415386  0  .  1
   O2-  O53  1  0.750000  0.543300  0.417213  0  .  1
   P5+  P54  1  0.750000  0.405150  0.441818  0  .  1
   Fe2+  Fe55  1  0.250000  0.282210  0.452727  0  .  1
   Li+  Li56  1  0.000000  0.000000  0.457693  0  .  1
   Li+  Li57  1  0.500000  0.000000  0.457693  0  .  1
   Fe2+  Fe58  1  0.750000  0.717790  0.462659  0  .  1
   P5+  P59  1  0.250000  0.594850  0.473568  0  .  1
   O2-  O60  1  0.250000  0.456700  0.498173  0  .  1
   O2-  O61  1  0.046600  0.665670  0.500000  0  .  1
   O2-  O62  1  0.453400  0.665670  0.500000  0  .  1
   O2-  O63  1  0.750000  0.403200  0.505443  0  .  1
   O2-  O64  1  0.750000  0.903200  0.508194  0  .  1
   O2-  O65  1  0.046600  0.165670  0.513637  0  .  1
   O2-  O66  1  0.453400  0.165670  0.513637  0  .  1
   O2-  O67  1  0.250000  0.956700  0.515465  0  .  1
   P5+  P68  1  0.250000  0.094850  0.540069  0  .  1
   Fe2+  Fe69  1  0.750000  0.217790  0.550979  0  .  1
   Li+  Li70  1  0.000000  0.500000  0.555944  0  .  1
   Li+  Li71  1  0.500000  0.500000  0.555944  0  .  1
   Fe2+  Fe72  1  0.250000  0.782210  0.560910  0  .  1
   P5+  P73  1  0.750000  0.905150  0.571820  0  .  1
   O2-  O74  1  0.750000  0.043300  0.596424  0  .  1
   O2-  O75  1  0.546600  0.834330  0.598251  0  .  1
   O2-  O76  1  0.953400  0.834330  0.598251  0  .  1
   O2-  O77  1  0.250000  0.096800  0.603694  0  .  1
   O2-  O78  1  0.250000  0.596800  0.606445  0  .  1
   O2-  O79  1  0.546600  0.334330  0.611889  0  .  1
   O2-  O80  1  0.953400  0.334330  0.611889  0  .  1
   O2-  O81  1  0.750000  0.543300  0.613716  0  .  1
   P5+  P82  1  0.750000  0.405150  0.638320  0  .  1
   Fe2+  Fe83  1  0.250000  0.282210  0.649230  0  .  1
 
