#\#CIF1.1
##########################################################################
#               Crystallographic Information Format file 
#               Produced by PyCifRW module
# 
#  This is a CIF file.  CIF has been adopted by the International
#  Union of Crystallography as the standard for data archiving and 
#  transmission.
#
#  For information on this file format, follow the CIF links at
#  http://www.iucr.org
##########################################################################

data_FeF3
_symmetry_space_group_name_H-M          'P 1'
_cell_length_a                          5.14802119
_cell_length_b                          5.14707107593
_cell_length_c                          7.00856138033
_cell_angle_alpha                       90.1709145535
_cell_angle_beta                        90.0
_cell_angle_gamma                       120.006106544
_chemical_name_systematic               'Generated by pymatgen'
_symmetry_Int_Tables_number             1
_chemical_formula_structural            FeF3
_chemical_formula_sum                   'Al3 F9'
_cell_volume                            160.81653504
_cell_formula_units_Z                   3
loop_
  _symmetry_equiv_pos_site_id
  _symmetry_equiv_pos_as_xyz
   1  'x, y, z'
 
loop_
  _atom_site_type_symbol
  _atom_site_symmetry_multiplicity
  _atom_site_fract_x
  _atom_site_fract_y
  _atom_site_fract_z
  _atom_site_attached_hydrogens
  _atom_site_B_iso_or_equiv
  _atom_site_label
  _atom_site_occupancy
   F  1  0.92837151  0.67059986  0.1748275  0  .  F1  1
   F  1  0.00018878  0.38774317  0.5000877  0  .  F2  1
   F  1  0.33008931  0.25832546  0.17419217  0  .  F3  1
   F  1  0.74207636  0.07239505  0.17444366  0  .  F4  1
   F  1  0.25777165  0.32940014  0.8251725  0  .  F5  1
   F  1  0.3873464  0.0  0.5  0  .  F6  1
   F  1  0.61244561  0.61225683  0.4999123  0  .  F7  1
   F  1  0.07176385  0.74167454  0.82580783  0  .  F8  1
   F  1  0.66968131  0.92760495  0.82555634  0  .  F9  1
   Al  1  0.33342727  0.66673152  0.66224288  0  .  Al10  1
   Al  1  4.219e-05  0.0  0.0  0  .  Al11  1
   Al  1  0.66669575  0.33326848  0.33775712  0  .  Al12  1
 
