#\#CIF1.1
##########################################################################
#               Crystallographic Information Format file 
#               Produced by PyCifRW module
# 
#  This is a CIF file.  CIF has been adopted by the International
#  Union of Crystallography as the standard for data archiving and 
#  transmission.
#
#  For information on this file format, follow the CIF links at
#  http://www.iucr.org
##########################################################################

data_AlF3
_symmetry_space_group_name_H-M          'P 1'
_cell_length_a                          5.14099988
_cell_length_b                          5.14083427869
_cell_length_c                          6.29860478564
_cell_angle_alpha                       90.0046724852
_cell_angle_beta                        90.0
_cell_angle_gamma                       120.001065601
_chemical_name_systematic               'Generated by pymatgen'
_symmetry_Int_Tables_number             1
_chemical_formula_structural            AlF3
_chemical_formula_sum                   'Al3 F9'
_cell_volume                            144.162240391
_cell_formula_units_Z                   3
loop_
  _symmetry_equiv_pos_site_id
  _symmetry_equiv_pos_as_xyz
   1  'x, y, z'
 
loop_
  _atom_site_type_symbol
  _atom_site_symmetry_multiplicity
  _atom_site_fract_x
  _atom_site_fract_y
  _atom_site_fract_z
  _atom_site_attached_hydrogens
  _atom_site_B_iso_or_equiv
  _atom_site_label
  _atom_site_occupancy
   Al  1  0.3333741  0.66670571  0.66657714  0  .  Al1  1
   Al  1  -1.5e-06  0.0  0.0  0  .  Al2  1
   Al  1  0.66666839  0.33329429  0.33342286  0  .  Al3  1
   F  1  0.8377655  0.66631632  0.16636294  0  .  F4  1
   F  1  3.482e-05  0.48048245  0.49997024  0  .  F5  1
   F  1  0.33360704  0.17142484  0.16634402  0  .  F6  1
   F  1  0.82848155  0.16212166  0.16634099  0  .  F7  1
   F  1  0.17144917  0.33368368  0.83363706  0  .  F8  1
   F  1  0.48042647  0.0  0.5  0  .  F9  1
   F  1  0.51955238  0.51951755  0.50002976  0  .  F10  1
   F  1  0.1621822  0.82857516  0.83365598  0  .  F11  1
   F  1  0.66635988  0.83787834  0.83365901  0  .  F12  1
 
