#\#CIF1.1
##########################################################################
#               Crystallographic Information Format file 
#               Produced by PyCifRW module
# 
#  This is a CIF file.  CIF has been adopted by the International
#  Union of Crystallography as the standard for data archiving and 
#  transmission.
#
#  For information on this file format, follow the CIF links at
#  http://www.iucr.org
##########################################################################

data_Al
_symmetry_space_group_name_H-M          'P 1'
_cell_length_a                          4.0405386278631330
_cell_length_b                          4.0405386278631330
_cell_length_c                          4.0405386278631330
_cell_angle_alpha                       90
_cell_angle_beta                        90
_cell_angle_gamma                       90
_chemical_name_systematic               'Generated by pymatgen'
_symmetry_Int_Tables_number             1
_chemical_formula_structural            Al
_chemical_formula_sum                   Al1
_cell_volume                            65.965641322003080
_cell_formula_units_Z                   1
loop_
  _symmetry_equiv_pos_site_id
  _symmetry_equiv_pos_as_xyz
   1  'x, y, z'

loop_
  _atom_site_type_symbol
  _atom_site_symmetry_multiplicity
  _atom_site_fract_x
  _atom_site_fract_y
  _atom_site_fract_z
  _atom_site_attached_hydrogens
  _atom_site_B_iso_or_equiv
  _atom_site_label
  _atom_site_occupancy
   Al  1  0.0  0.0  0.0  0  .  Al1  1
   Al  1  0.5  0.5  0.0  0  .  Al2  1
   Al  1  0.5  0.0  0.5  0  .  Al3  1 
   Al  1  0.0  0.5  0.5  0  .  Al4  1
